CHEMBL82608
     RDKit          3D

 20 22  0  0  1  0  0  0  0  0999 V2000
   -0.0168    1.3896    0.0097 C   0  0  0  0  0  0  0  0  0  0  0  0
    1.1561    2.1145    0.0024 C   0  0  0  0  0  0  0  0  0  0  0  0
    2.3730    1.4571   -0.0165 C   0  0  0  0  0  0  0  0  0  0  0  0
    2.3977    0.0766   -0.0382 C   0  0  0  0  0  0  0  0  0  0  0  0
    1.2157   -0.6515   -0.0344 C   0  0  0  0  0  0  0  0  0  0  0  0
    0.0021   -0.0041    0.0020 C   0  0  0  0  0  0  0  0  0  0  0  0
   -1.3288   -0.6946    0.0602 C   0  0  2  0  0  0  0  0  0  0  0  0
   -1.3223   -2.1001   -0.5154 C   0  0  0  0  0  0  0  0  0  0  0  0
   -0.3581   -2.9731    0.3021 C   0  0  0  0  0  0  0  0  0  0  0  0
    1.3273   -2.4131   -0.0881 S   0  0  0  0  0  0  0  0  0  0  0  0
    2.2151   -2.7556    0.9672 O   0  0  0  0  0  0  0  0  0  0  0  0
    1.6480   -2.7182   -1.4384 O   0  0  0  0  0  0  0  0  0  0  0  0
   -2.3712    0.1481   -0.6470 C   0  0  0  0  0  0  0  0  0  0  0  0
   -2.3938    0.4778   -1.9485 O   0  0  0  0  0  0  0  0  0  0  0  0
   -3.2431    0.4884    0.2627 N   0  0  0  0  0  0  0  0  0  0  0  0
   -2.9405   -0.0006    1.4718 C   0  0  0  0  0  0  0  0  0  0  0  0
   -3.6115    0.1890    2.4692 O   0  0  0  0  0  0  0  0  0  0  0  0
   -1.8067   -0.7277    1.4548 N   0  0  0  0  0  0  0  0  0  0  0  0
    3.9207   -0.7559   -0.0712 Cl  0  0  0  0  0  0  0  0  0  0  0  0
    1.1056    3.8497    0.0162 Cl  0  0  0  0  0  0  0  0  0  0  0  0
  1  6  2  0
  1  2  1  0
  2  3  2  0
  2 20  1  0
  3  4  1  0
  4  5  2  0
  4 19  1  0
  5 10  1  0
  5  6  1  0
  6  7  1  0
  7 18  1  0
  7  8  1  6
  7 13  1  0
  8  9  1  0
  9 10  1  0
 10 11  2  0
 10 12  2  0
 13 14  1  0
 13 15  2  0
 15 16  1  0
 16 17  2  0
 16 18  1  0
M  CHG  1  14  -1
M  END
$$$$
CHEMBL61955
     RDKit          3D

 27 30  0  0  1  0  0  0  0  0999 V2000
   -0.0178    1.4608    0.0101 C   0  0  0  0  0  0  0  0  0  0  0  0
    0.0021   -0.0041    0.0020 N   0  0  0  0  0  0  0  0  0  0  0  0
    0.0060   -0.6866   -1.1617 C   0  0  0  0  0  0  0  0  0  0  0  0
   -0.0058   -0.0607   -2.2040 O   0  0  0  0  0  0  0  0  0  0  0  0
    0.0229   -2.0248   -1.2170 N   0  0  0  0  0  0  0  0  0  0  0  0
    0.0341   -2.8406   -0.0852 C   0  0  0  0  0  0  0  0  0  0  0  0
    0.0483   -4.2218   -0.2038 C   0  0  0  0  0  0  0  0  0  0  0  0
    0.0579   -5.0125    0.9368 C   0  0  0  0  0  0  0  0  0  0  0  0
    0.0541   -4.4231    2.1954 C   0  0  0  0  0  0  0  0  0  0  0  0
    0.0414   -3.0450    2.3131 C   0  0  0  0  0  0  0  0  0  0  0  0
    0.0314   -2.2606    1.1826 C   0  0  0  0  0  0  0  0  0  0  0  0
    0.0242   -0.7586    1.2571 C   0  0  2  0  0  0  0  0  0  0  0  0
   -1.1582   -0.3316    2.0890 C   0  0  0  0  0  0  0  0  0  0  0  0
   -2.4575   -0.5071    1.7987 O   0  0  0  0  0  0  0  0  0  0  0  0
   -0.6590    0.2448    3.1514 N   0  0  0  0  0  0  0  0  0  0  0  0
    0.6809    0.2612    3.1429 C   0  0  0  0  0  0  0  0  0  0  0  0
    1.3609    0.7462    4.0280 O   0  0  0  0  0  0  0  0  0  0  0  0
    1.1872   -0.3234    2.0368 N   0  0  0  0  0  0  0  0  0  0  0  0
    0.0632   -5.2698    3.4096 N   0  0  0  0  0  0  0  0  0  0  0  0
    0.0599   -4.7568    4.5043 O   0  0  0  0  0  0  0  0  0  0  0  0
    0.0739   -6.4743    3.3065 O   0  0  0  0  0  0  0  0  0  0  0  0
    0.0710   -6.4042    0.8194 N   0  0  0  0  0  0  0  0  0  0  0  0
   -1.1835   -7.1705    0.7519 C   0  0  0  0  0  0  0  0  0  0  0  0
   -1.1099   -8.1130   -0.4548 C   0  0  0  0  0  0  0  0  0  0  0  0
    0.0970   -8.8759   -0.3833 O   0  0  0  0  0  0  0  0  0  0  0  0
    1.2902   -8.0911   -0.4479 C   0  0  0  0  0  0  0  0  0  0  0  0
    1.3396   -7.1470    0.7535 C   0  0  0  0  0  0  0  0  0  0  0  0
  1  2  1  0
  2 12  1  0
  2  3  1  0
  3  4  2  0
  3  5  1  0
  5  6  1  0
  6 11  2  0
  6  7  1  0
  7  8  2  0
  8  9  1  0
  8 22  1  0
  9 10  2  0
  9 19  1  0
 10 11  1  0
 11 12  1  0
 12 18  1  1
 12 13  1  0
 13 14  1  0
 13 15  2  0
 15 16  1  0
 16 17  2  0
 16 18  1  0
 19 20  2  0
 19 21  1  0
 22 27  1  0
 22 23  1  0
 23 24  1  0
 24 25  1  0
 25 26  1  0
 26 27  1  0
M  CHG  3  14  -1  19   1  21  -1
M  END
$$$$
CHEMBL81536
     RDKit          3D

 18 20  0  0  1  0  0  0  0  0999 V2000
   -0.0166    1.3746    0.0096 C   0  0  0  0  0  0  0  0  0  0  0  0
    1.1677    2.1081    0.0022 C   0  0  0  0  0  0  0  0  0  0  0  0
    2.3720    1.4293   -0.0047 C   0  0  0  0  0  0  0  0  0  0  0  0
    2.3891    0.0344   -0.0221 C   0  0  0  0  0  0  0  0  0  0  0  0
    1.2104   -0.6814   -0.0172 C   0  0  0  0  0  0  0  0  0  0  0  0
    0.0021   -0.0041    0.0020 C   0  0  0  0  0  0  0  0  0  0  0  0
   -1.4897   -0.8918    0.0175 Cl  0  0  0  0  0  0  0  0  0  0  0  0
    1.2404   -2.4171   -0.0359 Cl  0  0  0  0  0  0  0  0  0  0  0  0
    3.9213    2.2745    0.0261 S   0  0  0  0  0  0  0  0  0  0  0  0
    3.4673    3.9973   -0.3316 C   0  0  0  0  0  0  0  0  0  0  0  0
    2.2461    4.3345    0.5364 C   0  0  0  0  0  0  0  0  0  0  0  0
    1.0329    3.6025   -0.0118 C   0  0  1  0  0  0  0  0  0  0  0  0
    0.7459    4.0715   -1.4249 C   0  0  0  0  0  0  0  0  0  0  0  0
    1.4642    3.9563   -2.3947 O   0  0  0  0  0  0  0  0  0  0  0  0
   -0.4736    4.6425   -1.3789 N   0  0  0  0  0  0  0  0  0  0  0  0
   -0.9913    4.6020   -0.1458 C   0  0  0  0  0  0  0  0  0  0  0  0
   -2.0800    5.0571    0.1452 O   0  0  0  0  0  0  0  0  0  0  0  0
   -0.1722    4.0009    0.7358 N   0  0  0  0  0  0  0  0  0  0  0  0
  1  6  2  0
  1  2  1  0
  2 12  1  0
  2  3  2  0
  3  4  1  0
  3  9  1  0
  4  5  2  0
  5  6  1  0
  5  8  1  0
  6  7  1  0
  9 10  1  0
 10 11  1  0
 12 11  1  1
 12 18  1  0
 12 13  1  0
 13 14  2  0
 13 15  1  0
 15 16  1  0
 16 17  2  0
 16 18  1  0
M  END
$$$$
CHEMBL66006
     RDKit          3D

 24 26  0  0  0  0  0  0  0  0999 V2000
   -0.0167    1.3789    0.0096 C   0  0  0  0  0  0  0  0  0  0  0  0
    1.1705    2.0873    0.0021 C   0  0  0  0  0  0  0  0  0  0  0  0
    2.3773    1.4143   -0.0131 C   0  0  0  0  0  0  0  0  0  0  0  0
    2.3978    0.0296   -0.0207 C   0  0  0  0  0  0  0  0  0  0  0  0
    1.2090   -0.6794   -0.0132 C   0  0  0  0  0  0  0  0  0  0  0  0
    0.0021   -0.0041    0.0020 C   0  0  0  0  0  0  0  0  0  0  0  0
   -1.6226   -0.9717    0.0124 Br  0  0  0  0  0  0  0  0  0  0  0  0
    3.5774   -0.6288   -0.0360 F   0  0  0  0  0  0  0  0  0  0  0  0
    3.6711    2.1872   -0.0218 C   0  0  0  0  0  0  0  0  0  0  0  0
    4.2866    2.1240    1.3061 N   0  0  0  0  0  0  0  0  0  0  0  0
    5.1457    1.1264    1.5857 C   0  0  0  0  0  0  0  0  0  0  0  0
    5.4061    0.2829    0.7427 O   0  0  0  0  0  0  0  0  0  0  0  0
    5.7446    1.0655    2.8665 C   0  0  0  0  0  0  0  0  0  0  0  0
    5.4243    2.0302    3.7642 C   0  0  0  0  0  0  0  0  0  0  0  0
    4.5089    3.0277    3.3730 C   0  0  0  0  0  0  0  0  0  0  0  0
    3.9980    3.0245    2.1746 N   0  0  0  0  0  0  0  0  0  0  0  0
    4.1219    4.1102    4.3474 C   0  0  0  0  0  0  0  0  0  0  0  0
    3.1384    5.0464    3.6936 C   0  0  0  0  0  0  0  0  0  0  0  0
    2.7845    4.8524    2.5431 O   0  0  0  0  0  0  0  0  0  0  0  0
    2.6966    5.9977    4.3152 O   0  0  0  0  0  0  0  0  0  0  0  0
    6.0081    2.0832    5.1483 C   0  0  0  0  0  0  0  0  0  0  0  0
    6.6105    0.7306    5.5272 C   0  0  0  0  0  0  0  0  0  0  0  0
    7.5448    0.2813    4.3974 C   0  0  0  0  0  0  0  0  0  0  0  0
    6.6945   -0.0573    3.1731 C   0  0  0  0  0  0  0  0  0  0  0  0
  1  6  2  0
  1  2  1  0
  2  3  2  0
  3  4  1  0
  3  9  1  0
  4  5  2  0
  4  8  1  0
  5  6  1  0
  6  7  1  0
  9 10  1  0
 10 16  1  0
 10 11  1  0
 11 12  2  0
 11 13  1  0
 13 24  1  0
 13 14  2  0
 14 15  1  0
 14 21  1  0
 15 16  2  0
 15 17  1  0
 17 18  1  0
 18 19  2  0
 18 20  1  0
 21 22  1  0
 22 23  1  0
 23 24  1  0
M  CHG  1  20  -1
M  END
$$$$
CHEMBL68586
     RDKit          3D

 22 23  0  0  0  0  0  0  0  0999 V2000
   -0.0184    1.5028    0.0103 C   0  0  0  0  0  0  0  0  0  0  0  0
    0.0021   -0.0041    0.0020 C   0  0  0  0  0  0  0  0  0  0  0  0
   -1.1611   -0.7202    0.0036 C   0  0  0  0  0  0  0  0  0  0  0  0
   -1.0673   -2.1287   -0.0045 C   0  0  0  0  0  0  0  0  0  0  0  0
   -2.0773   -2.8141   -0.0038 O   0  0  0  0  0  0  0  0  0  0  0  0
    0.1483   -2.7082   -0.0133 N   0  0  0  0  0  0  0  0  0  0  0  0
    1.2269   -2.0118   -0.0141 N   0  0  0  0  0  0  0  0  0  0  0  0
    1.2177   -0.7077   -0.0134 C   0  0  0  0  0  0  0  0  0  0  0  0
    2.5206    0.0497   -0.0223 C   0  0  0  0  0  0  0  0  0  0  0  0
    3.6688   -0.9262   -0.0384 C   0  0  0  0  0  0  0  0  0  0  0  0
    3.4495   -2.1255   -0.0422 O   0  0  0  0  0  0  0  0  0  0  0  0
    4.8170   -0.5164   -0.0475 O   0  0  0  0  0  0  0  0  0  0  0  0
    0.2424   -4.1702   -0.0216 C   0  0  0  0  0  0  0  0  0  0  0  0
    0.2680   -4.6638   -1.4453 C   0  0  0  0  0  0  0  0  0  0  0  0
   -0.8851   -5.1566   -2.0268 C   0  0  0  0  0  0  0  0  0  0  0  0
   -0.8625   -5.6090   -3.3325 C   0  0  0  0  0  0  0  0  0  0  0  0
    0.3144   -5.5696   -4.0589 C   0  0  0  0  0  0  0  0  0  0  0  0
    1.4689   -5.0775   -3.4788 C   0  0  0  0  0  0  0  0  0  0  0  0
    1.4451   -4.6185   -2.1726 C   0  0  0  0  0  0  0  0  0  0  0  0
    2.5712   -4.1323   -1.6064 F   0  0  0  0  0  0  0  0  0  0  0  0
    0.3440   -6.1896   -5.8452 Br  0  0  0  0  0  0  0  0  0  0  0  0
   -2.5005   -0.0295    0.0141 C   0  0  0  0  0  0  0  0  0  0  0  0
  1  2  1  0
  2  8  1  0
  2  3  2  0
  3  4  1  0
  3 22  1  0
  4  5  2  0
  4  6  1  0
  6  7  1  0
  6 13  1  0
  7  8  2  0
  8  9  1  0
  9 10  1  0
 10 11  2  0
 10 12  1  0
 13 14  1  0
 14 19  1  0
 14 15  2  0
 15 16  1  0
 16 17  2  0
 17 18  1  0
 17 21  1  0
 18 19  2  0
 19 20  1  0
M  CHG  1  12  -1
M  END
$$$$
CHEMBL344526
     RDKit          3D

 26 29  0  0  0  0  0  0  0  0999 V2000
   -0.0165    1.3627    0.0095 C   0  0  0  0  0  0  0  0  0  0  0  0
    1.1654    2.0924    0.0022 C   0  0  0  0  0  0  0  0  0  0  0  0
    2.3861    1.4540   -0.0134 C   0  0  0  0  0  0  0  0  0  0  0  0
    2.4294    0.0605   -0.0213 C   0  0  0  0  0  0  0  0  0  0  0  0
    1.2244   -0.6786   -0.0133 C   0  0  0  0  0  0  0  0  0  0  0  0
    0.0021   -0.0041    0.0020 C   0  0  0  0  0  0  0  0  0  0  0  0
    1.3000   -2.1396   -0.0224 C   0  0  0  0  0  0  0  0  0  0  0  0
    2.4575   -2.7306   -0.0371 N   0  0  0  0  0  0  0  0  0  0  0  0
    3.6626   -2.0276   -0.0452 N   0  0  0  0  0  0  0  0  0  0  0  0
    3.6977   -0.6787   -0.0384 C   0  0  0  0  0  0  0  0  0  0  0  0
    4.7616   -0.0856   -0.0461 O   0  0  0  0  0  0  0  0  0  0  0  0
    4.9232   -2.7737   -0.0618 C   0  0  0  0  0  0  0  0  0  0  0  0
    5.3696   -3.0372    1.3533 C   0  0  0  0  0  0  0  0  0  0  0  0
    5.1282   -4.1634    2.0588 C   0  0  0  0  0  0  0  0  0  0  0  0
    5.7007   -3.9990    3.2915 N   0  0  0  0  0  0  0  0  0  0  0  0
    5.7690   -4.8031    4.3923 C   0  0  0  0  0  0  0  0  0  0  0  0
    6.4092   -4.3909    5.5060 C   0  0  0  0  0  0  0  0  0  0  0  0
    7.0165   -3.1236    5.5467 C   0  0  0  0  0  0  0  0  0  0  0  0
    6.9559   -2.3120    4.4550 C   0  0  0  0  0  0  0  0  0  0  0  0
    6.2831   -2.7580    3.3004 C   0  0  0  0  0  0  0  0  0  0  0  0
    6.0747   -2.1984    2.1167 N   0  0  0  0  0  0  0  0  0  0  0  0
    7.8390   -2.5960    6.9815 Cl  0  0  0  0  0  0  0  0  0  0  0  0
    0.0356   -2.9595   -0.0143 C   0  0  0  0  0  0  0  0  0  0  0  0
    0.3870   -4.4249   -0.0262 C   0  0  0  0  0  0  0  0  0  0  0  0
    1.5559   -4.7714   -0.0401 O   0  0  0  0  0  0  0  0  0  0  0  0
   -0.4975   -5.2640   -0.0221 O   0  0  0  0  0  0  0  0  0  0  0  0
  1  6  2  0
  1  2  1  0
  2  3  2  0
  3  4  1  0
  4 10  1  0
  4  5  2  0
  5  6  1  0
  5  7  1  0
  7  8  2  0
  7 23  1  0
  8  9  1  0
  9 10  1  0
  9 12  1  0
 10 11  2  0
 12 13  1  0
 13 21  1  0
 13 14  2  0
 14 15  1  0
 15 20  1  0
 15 16  1  0
 16 17  2  0
 17 18  1  0
 18 19  2  0
 18 22  1  0
 19 20  1  0
 20 21  2  0
 23 24  1  0
 24 25  2  0
 24 26  1  0
M  CHG  1  26  -1
M  END
$$$$
CHEMBL20685
     RDKit          3D

 26 30  0  0  1  0  0  0  0  0999 V2000
   -0.0164    1.3570    0.0095 C   0  0  0  0  0  0  0  0  0  0  0  0
    1.1559    2.1003    0.0023 C   0  0  0  0  0  0  0  0  0  0  0  0
    2.3751    1.4492   -0.0129 C   0  0  0  0  0  0  0  0  0  0  0  0
    2.4044    0.0758   -0.0205 C   0  0  0  0  0  0  0  0  0  0  0  0
    1.2262   -0.7047   -0.0135 C   0  0  0  0  0  0  0  0  0  0  0  0
    0.0021   -0.0041    0.0020 C   0  0  0  0  0  0  0  0  0  0  0  0
    1.4635   -2.0326   -0.0233 N   0  0  0  0  0  0  0  0  0  0  0  0
    2.6693   -2.5212   -0.0378 C   0  0  0  0  0  0  0  0  0  0  0  0
    3.6694   -1.1675   -0.0399 S   0  0  0  0  0  0  0  0  0  0  0  0
    3.0782   -3.9717   -0.0496 C   0  0  0  0  0  0  0  0  0  0  0  0
    3.1970   -4.4343   -1.4345 N   0  0  0  0  0  0  0  0  0  0  0  0
    2.1064   -5.0213   -2.2229 C   0  0  0  0  0  0  0  0  0  0  0  0
    2.7321   -5.3356   -3.5813 C   0  0  2  0  0  0  0  0  0  0  0  0
    4.1656   -4.8951   -3.4751 C   0  0  0  0  0  0  0  0  0  0  0  0
    4.3639   -4.3764   -2.2019 C   0  0  0  0  0  0  0  0  0  0  0  0
    5.6260   -3.8916   -1.8564 C   0  0  0  0  0  0  0  0  0  0  0  0
    6.6588   -3.9236   -2.7691 C   0  0  0  0  0  0  0  0  0  0  0  0
    6.4508   -4.4368   -4.0370 C   0  0  0  0  0  0  0  0  0  0  0  0
    5.2054   -4.9291   -4.3841 C   0  0  0  0  0  0  0  0  0  0  0  0
    7.7525   -4.4749   -5.1849 Cl  0  0  0  0  0  0  0  0  0  0  0  0
    2.0124   -4.6287   -4.7000 C   0  0  0  0  0  0  0  0  0  0  0  0
    1.8562   -3.4342   -4.8357 O   0  0  0  0  0  0  0  0  0  0  0  0
    1.5791   -5.6108   -5.5202 N   0  0  0  0  0  0  0  0  0  0  0  0
    1.9290   -6.8216   -5.0666 C   0  0  0  0  0  0  0  0  0  0  0  0
    1.6529   -7.8613   -5.6322 O   0  0  0  0  0  0  0  0  0  0  0  0
    2.6221   -6.7569   -3.9116 N   0  0  0  0  0  0  0  0  0  0  0  0
  1  6  2  0
  1  2  1  0
  2  3  2  0
  3  4  1  0
  4  9  1  0
  4  5  2  0
  5  6  1  0
  5  7  1  0
  7  8  2  0
  8  9  1  0
  8 10  1  0
 10 11  1  0
 11 15  1  0
 11 12  1  0
 13 12  1  1
 13 26  1  0
 13 14  1  0
 13 21  1  0
 14 19  1  0
 14 15  2  0
 15 16  1  0
 16 17  2  0
 17 18  1  0
 18 19  2  0
 18 20  1  0
 21 22  2  0
 21 23  1  0
 23 24  1  0
 24 25  2  0
 24 26  1  0
M  END
$$$$
CHEMBL284990
     RDKit          3D

 20 21  0  0  1  0  0  0  0  0999 V2000
   -0.0622    1.5368   -0.0242 C   0  0  0  0  0  0  0  0  0  0  0  0
   -0.0297    0.0072   -0.0212 C   0  0  0  0  0  0  0  0  0  0  0  0
   -1.4611   -0.5333   -0.0136 C   0  0  0  0  0  0  0  0  0  0  0  0
   -1.4300   -1.9980   -0.0108 N   0  0  0  0  0  0  0  0  0  0  0  0
   -1.4131   -2.7787   -1.1685 C   0  0  0  0  0  0  0  0  0  0  0  0
   -1.4217   -2.4133   -2.5132 C   0  0  0  0  0  0  0  0  0  0  0  0
   -1.4011   -3.3820   -3.4949 C   0  0  0  0  0  0  0  0  0  0  0  0
   -1.3723   -4.7239   -3.1532 C   0  0  0  0  0  0  0  0  0  0  0  0
   -1.3637   -5.0939   -1.8177 C   0  0  0  0  0  0  0  0  0  0  0  0
   -1.3837   -4.1272   -0.8375 C   0  0  0  0  0  0  0  0  0  0  0  0
   -1.3820   -4.1948    0.6723 C   0  0  1  0  0  0  0  0  0  0  0  0
   -1.4085   -2.7447    1.1061 C   0  0  0  0  0  0  0  0  0  0  0  0
   -1.4123   -2.3341    2.2474 O   0  0  0  0  0  0  0  0  0  0  0  0
   -2.6238   -4.9324    1.1772 C   0  0  2  0  0  0  0  0  0  0  0  0
   -3.8268   -4.1511    0.8468 C   0  0  0  0  0  0  0  0  0  0  0  0
   -4.7552   -3.5482    0.5919 N   0  0  0  0  0  0  0  0  0  0  0  0
   -2.5322   -5.1060    2.6714 C   0  0  0  0  0  0  0  0  0  0  0  0
   -3.5479   -5.2314    3.3339 O   0  0  0  0  0  0  0  0  0  0  0  0
   -1.4423   -5.1210    3.2176 O   0  0  0  0  0  0  0  0  0  0  0  0
   -1.3532   -5.6688   -4.1185 F   0  0  0  0  0  0  0  0  0  0  0  0
  1  2  1  0
  2  3  1  0
  3  4  1  0
  4 12  1  0
  4  5  1  0
  5 10  2  0
  5  6  1  0
  6  7  2  0
  7  8  1  0
  8  9  2  0
  8 20  1  0
  9 10  1  0
 10 11  1  0
 11 12  1  1
 11 14  1  0
 12 13  2  0
 14 15  1  1
 14 17  1  0
 15 16  3  0
 17 18  2  0
 17 19  1  0
M  CHG  1  19  -1
M  END
$$$$
CHEMBL192399
     RDKit          3D

 34 38  0  0  0  0  0  0  0  0999 V2000
   -0.0167    1.3781    0.0096 C   0  0  0  0  0  0  0  0  0  0  0  0
    1.1709    2.0855    0.0021 C   0  0  0  0  0  0  0  0  0  0  0  0
    2.3773    1.4107   -0.0130 C   0  0  0  0  0  0  0  0  0  0  0  0
    2.3960    0.0285   -0.0201 C   0  0  0  0  0  0  0  0  0  0  0  0
    1.2084   -0.6789   -0.0117 C   0  0  0  0  0  0  0  0  0  0  0  0
    0.0021   -0.0041    0.0020 C   0  0  0  0  0  0  0  0  0  0  0  0
    3.7112   -0.7071   -0.0376 C   0  0  0  0  0  0  0  0  0  0  0  0
    4.1410   -0.9464    1.3041 O   0  0  0  0  0  0  0  0  0  0  0  0
    5.3194   -1.6054    1.4666 C   0  0  0  0  0  0  0  0  0  0  0  0
    6.0487   -2.0076    0.3505 C   0  0  0  0  0  0  0  0  0  0  0  0
    7.2438   -2.6754    0.4970 C   0  0  0  0  0  0  0  0  0  0  0  0
    7.7332   -2.9541    1.7689 C   0  0  0  0  0  0  0  0  0  0  0  0
    6.9992   -2.5493    2.8979 C   0  0  0  0  0  0  0  0  0  0  0  0
    5.7906   -1.8678    2.7373 C   0  0  0  0  0  0  0  0  0  0  0  0
    7.7729   -2.9862    4.0626 C   0  0  0  0  0  0  0  0  0  0  0  0
    8.8730   -3.5983    3.5965 C   0  0  0  0  0  0  0  0  0  0  0  0
    8.8676   -3.5893    2.2286 N   0  0  0  0  0  0  0  0  0  0  0  0
    9.9109   -4.1688    1.3788 C   0  0  0  0  0  0  0  0  0  0  0  0
   10.8961   -3.0964    0.9911 C   0  0  0  0  0  0  0  0  0  0  0  0
   10.7413   -1.9540    1.3878 O   0  0  0  0  0  0  0  0  0  0  0  0
   11.8481   -3.3713    0.2807 O   0  0  0  0  0  0  0  0  0  0  0  0
    7.4040   -2.7857    5.5100 C   0  0  0  0  0  0  0  0  0  0  0  0
    6.4868   -3.8963    5.9531 C   0  0  0  0  0  0  0  0  0  0  0  0
    6.8154   -5.0406    6.4777 N   0  0  0  0  0  0  0  0  0  0  0  0
    5.8933   -5.9584    6.8356 C   0  0  0  0  0  0  0  0  0  0  0  0
    6.0652   -7.2372    7.4111 C   0  0  0  0  0  0  0  0  0  0  0  0
    4.9750   -8.0227    7.7010 C   0  0  0  0  0  0  0  0  0  0  0  0
    3.6805   -7.5890    7.4400 C   0  0  0  0  0  0  0  0  0  0  0  0
    3.4805   -6.3411    6.8767 C   0  0  0  0  0  0  0  0  0  0  0  0
    4.5660   -5.5483    6.5833 C   0  0  0  0  0  0  0  0  0  0  0  0
    4.8055   -3.9339    5.8879 S   0  0  0  0  0  0  0  0  0  0  0  0
    2.2287   -5.9043    6.6171 F   0  0  0  0  0  0  0  0  0  0  0  0
    5.1658   -9.2419    8.2506 F   0  0  0  0  0  0  0  0  0  0  0  0
    7.3093   -7.6912    7.6779 F   0  0  0  0  0  0  0  0  0  0  0  0
  1  6  2  0
  1  2  1  0
  2  3  2  0
  3  4  1  0
  4  5  2  0
  4  7  1  0
  5  6  1  0
  7  8  1  0
  8  9  1  0
  9 14  1  0
  9 10  2  0
 10 11  1  0
 11 12  2  0
 12 17  1  0
 12 13  1  0
 13 14  2  0
 13 15  1  0
 15 16  2  0
 15 22  1  0
 16 17  1  0
 17 18  1  0
 18 19  1  0
 19 20  2  0
 19 21  1  0
 22 23  1  0
 23 31  1  0
 23 24  2  0
 24 25  1  0
 25 30  2  0
 25 26  1  0
 26 27  2  0
 26 34  1  0
 27 28  1  0
 27 33  1  0
 28 29  2  0
 29 30  1  0
 29 32  1  0
 30 31  1  0
M  CHG  1  21  -1
M  END
$$$$
CHEMBL395347
     RDKit          3D

 24 25  0  0  0  0  0  0  0  0999 V2000
   -0.0167    1.3836    0.0096 C   0  0  0  0  0  0  0  0  0  0  0  0
    1.1632    2.0941    0.0022 C   0  0  0  0  0  0  0  0  0  0  0  0
    2.3853    1.4160   -0.0131 C   0  0  0  0  0  0  0  0  0  0  0  0
    2.4009    0.0132   -0.0207 C   0  0  0  0  0  0  0  0  0  0  0  0
    1.2059   -0.6870   -0.0131 C   0  0  0  0  0  0  0  0  0  0  0  0
    0.0021   -0.0041    0.0020 C   0  0  0  0  0  0  0  0  0  0  0  0
   -1.1607   -0.6919    0.0094 F   0  0  0  0  0  0  0  0  0  0  0  0
    3.5818   -0.6549   -0.0360 O   0  0  0  0  0  0  0  0  0  0  0  0
    3.5194   -2.0825   -0.0430 C   0  0  0  0  0  0  0  0  0  0  0  0
    4.9169   -2.6463   -0.0598 C   0  0  0  0  0  0  0  0  0  0  0  0
    5.8773   -1.8952   -0.0653 O   0  0  0  0  0  0  0  0  0  0  0  0
    5.0872   -3.8535   -0.0679 O   0  0  0  0  0  0  0  0  0  0  0  0
    3.6500    2.1702   -0.0216 C   0  0  0  0  0  0  0  0  0  0  0  0
    5.1445    1.3352   -0.0403 S   0  0  0  0  0  0  0  0  0  0  0  0
    3.6311    3.5178   -0.0147 N   0  0  0  0  0  0  0  0  0  0  0  0
    4.8893    4.2682   -0.0231 C   0  0  0  0  0  0  0  0  0  0  0  0
    4.5931    5.7457   -0.0129 C   0  0  0  0  0  0  0  0  0  0  0  0
    4.6440    6.4691   -1.1896 C   0  0  0  0  0  0  0  0  0  0  0  0
    4.3721    7.8241   -1.1811 C   0  0  0  0  0  0  0  0  0  0  0  0
    4.0490    8.4582    0.0054 C   0  0  0  0  0  0  0  0  0  0  0  0
    3.9980    7.7364    1.1836 C   0  0  0  0  0  0  0  0  0  0  0  0
    4.2644    6.3777    1.1743 C   0  0  0  0  0  0  0  0  0  0  0  0
    4.2095    5.6702    2.3239 F   0  0  0  0  0  0  0  0  0  0  0  0
    3.6777   10.3124    0.0158 Br  0  0  0  0  0  0  0  0  0  0  0  0
  1  6  2  0
  1  2  1  0
  2  3  2  0
  3  4  1  0
  3 13  1  0
  4  5  2  0
  4  8  1  0
  5  6  1  0
  6  7  1  0
  8  9  1  0
  9 10  1  0
 10 11  2  0
 10 12  1  0
 13 14  2  0
 13 15  1  0
 15 16  1  0
 16 17  1  0
 17 22  1  0
 17 18  2  0
 18 19  1  0
 19 20  2  0
 20 21  1  0
 20 24  1  0
 21 22  2  0
 22 23  1  0
M  CHG  1  12  -1
M  END
$$$$
